@<TRIPOS>MOLECULE
*****
 16 16 0 0 0
SMALL
GASTEIGER


@<TRIPOS>ATOM
      1 C          -5.1120    1.8248    0.2545 C.3     1  LIG1       -0.0294
      2 C          -4.0282    2.7954   -0.2161 C.3     1  LIG1       -0.0489
      3 C          -4.7584    0.4116   -0.2313 C.3     1  LIG1        0.0477
      4 H          -6.1029    2.1354   -0.1405 H       1  LIG1        0.0287
      5 H          -5.1568    1.8262    1.3659 H       1  LIG1        0.0287
      6 O          -3.4992    0.0043    0.2795 O.3     1  LIG1       -0.3798
      7 H          -4.7716    0.3508   -1.3436 H       1  LIG1        0.0560
      8 H          -5.5328   -0.2934    0.1373 H       1  LIG1        0.0560
      9 C          -2.4733    0.8466   -0.2207 C.3     1  LIG1        0.0477
     10 C          -2.6679    2.2900    0.2657 C.3     1  LIG1       -0.0294
     11 H          -2.4287    0.7967   -1.3328 H       1  LIG1        0.0560
     12 H          -1.4973    0.4748    0.1559 H       1  LIG1        0.0560
     13 H          -1.8569    2.9437   -0.1209 H       1  LIG1        0.0287
     14 H          -2.6366    2.3059    1.3775 H       1  LIG1        0.0287
     15 H          -4.2246    3.8175    0.1725 H       1  LIG1        0.0267
     16 H          -4.0310    2.8370   -1.3282 H       1  LIG1        0.0267
@<TRIPOS>BOND
     1     1     2    1
     2     1     3    1
     3     1     4    1
     4     1     5    1
     5     3     6    1
     6     3     7    1
     7     3     8    1
     8     6     9    1
     9     9    10    1
    10     9    11    1
    11     9    12    1
    12    10     2    1
    13    10    13    1
    14    10    14    1
    15     2    15    1
    16     2    16    1
